feeders/ieee123/IEEE123Lines.dss
! IEEE 123-Bus Line Definitions

New Line.L1 phases=3 Bus1=1.1.2.3 Bus2=2.1.2.3 LineCode=1 Length=0.175 units=kft
New Line.L2 phases=3 Bus1=1.1.2.3 Bus2=3.1.2.3 LineCode=1 Length=0.250 units=kft
New Line.L3 phases=3 Bus1=1.1.2.3 Bus2=7.1.2.3 LineCode=1 Length=0.300 units=kft
New Line.L4 phases=1 Bus1=2.2 Bus2=8.2 LineCode=10 Length=0.200 units=kft
New Line.L5 phases=3 Bus1=3.1.2.3 Bus2=4.1.2.3 LineCode=1 Length=0.200 units=kft
New Line.L6 phases=3 Bus1=3.1.2.3 Bus2=5.1.2.3 LineCode=1 Length=0.325 units=kft
New Line.L7 phases=1 Bus1=4.3 Bus2=6.3 LineCode=11 Length=0.250 units=kft
New Line.L8 phases=1 Bus1=5.3 Bus2=6.3 LineCode=11 Length=0.250 units=kft
New Line.L9 phases=3 Bus1=7.1.2.3 Bus2=8.1.2.3 LineCode=1 Length=0.200 units=kft
New Line.L10 phases=3 Bus1=8.1.2.3 Bus2=9.1.2.3 LineCode=1 Length=0.225 units=kft
New Line.L11 phases=3 Bus1=8.1.2.3 Bus2=13.1.2.3 LineCode=1 Length=0.250 units=kft
New Line.L12 phases=3 Bus1=9.1.2.3 Bus2=14.1.2.3 LineCode=1 Length=0.425 units=kft
New Line.L13 phases=1 Bus1=13.1 Bus2=18.1 LineCode=9 Length=0.825 units=kft
New Line.L14 phases=3 Bus1=14.1.2.3 Bus2=11.1.2.3 LineCode=1 Length=0.250 units=kft
New Line.L15 phases=3 Bus1=14.1.2.3 Bus2=15.1.2.3 LineCode=1 Length=0.375 units=kft
New Line.L16 phases=3 Bus1=15.1.2.3 Bus2=16.1.2.3 LineCode=1 Length=0.375 units=kft
New Line.L17 phases=3 Bus1=15.1.2.3 Bus2=17.1.2.3 LineCode=1 Length=0.350 units=kft
New Line.L18 phases=3 Bus1=16.1.2.3 Bus2=17.1.2.3 LineCode=1 Length=0.275 units=kft
New Line.L19 phases=1 Bus1=17.1 Bus2=19.1 LineCode=9 Length=0.250 units=kft
New Line.L20 phases=1 Bus1=18.1 Bus2=19.1 LineCode=9 Length=0.250 units=kft
New Line.L21 phases=1 Bus1=19.1 Bus2=20.1 LineCode=9 Length=0.325 units=kft
New Line.L22 phases=1 Bus1=20.1 Bus2=21.1 LineCode=9 Length=0.300 units=kft
New Line.L23 phases=1 Bus1=21.1 Bus2=22.1 LineCode=9 Length=0.525 units=kft
New Line.L24 phases=1 Bus1=21.1 Bus2=23.1 LineCode=9 Length=0.250 units=kft
New Line.L25 phases=1 Bus1=23.1 Bus2=24.1 LineCode=9 Length=0.550 units=kft
New Line.L26 phases=1 Bus1=23.1 Bus2=25.1 LineCode=9 Length=0.275 units=kft
New Line.L27 phases=3 Bus1=25.1.2.3 Bus2=26.1.2.3 LineCode=1 Length=0.350 units=kft
New Line.L28 phases=3 Bus1=25.1.2.3 Bus2=28.1.2.3 LineCode=1 Length=0.200 units=kft
New Line.L29 phases=2 Bus1=26.1.3 Bus2=27.1.3 LineCode=7 Length=0.275 units=kft
New Line.L30 phases=2 Bus1=26.1.3 Bus2=31.1.3 LineCode=7 Length=0.225 units=kft
New Line.L31 phases=2 Bus1=27.1.3 Bus2=33.1.3 LineCode=7 Length=0.500 units=kft
New Line.L32 phases=3 Bus1=28.1.2.3 Bus2=29.1.2.3 LineCode=1 Length=0.300 units=kft
New Line.L33 phases=1 Bus1=29.1 Bus2=30.1 LineCode=9 Length=0.350 units=kft
New Line.L34 phases=3 Bus1=30.1.2.3 Bus2=250.1.2.3 LineCode=1 Length=0.200 units=kft
New Line.L35 phases=1 Bus1=31.3 Bus2=32.3 LineCode=11 Length=0.300 units=kft
New Line.L36 phases=1 Bus1=34.3 Bus2=11.3 LineCode=11 Length=0.100 units=kft
New Line.L37 phases=3 Bus1=35.1.2.3 Bus2=36.1.2.3 LineCode=1 Length=0.650 units=kft
New Line.L38 phases=2 Bus1=35.1.2 Bus2=40.1.2 LineCode=6 Length=0.250 units=kft
New Line.L39 phases=2 Bus1=36.1.2 Bus2=37.1.2 LineCode=6 Length=0.300 units=kft
New Line.L40 phases=2 Bus1=36.1.2 Bus2=38.1.2 LineCode=6 Length=0.250 units=kft
New Line.L41 phases=1 Bus1=38.2 Bus2=39.2 LineCode=10 Length=0.325 units=kft
New Line.L42 phases=1 Bus1=40.3 Bus2=41.3 LineCode=11 Length=0.325 units=kft
New Line.L43 phases=2 Bus1=40.1.2 Bus2=42.1.2 LineCode=6 Length=0.250 units=kft
New Line.L44 phases=2 Bus1=42.1.2 Bus2=43.1.2 LineCode=6 Length=0.500 units=kft
New Line.L45 phases=2 Bus1=42.1.2 Bus2=44.1.2 LineCode=6 Length=0.200 units=kft
New Line.L46 phases=1 Bus1=44.1 Bus2=45.1 LineCode=9 Length=0.200 units=kft
New Line.L47 phases=1 Bus1=44.1 Bus2=47.1 LineCode=9 Length=0.250 units=kft
New Line.L48 phases=1 Bus1=45.1 Bus2=46.1 LineCode=9 Length=0.300 units=kft
New Line.L49 phases=1 Bus1=47.1 Bus2=48.1 LineCode=9 Length=0.150 units=kft
New Line.L50 phases=1 Bus1=47.1 Bus2=49.1 LineCode=9 Length=0.250 units=kft
New Line.L51 phases=1 Bus1=49.1 Bus2=50.1 LineCode=9 Length=0.250 units=kft
New Line.L52 phases=1 Bus1=50.1 Bus2=51.1 LineCode=9 Length=0.250 units=kft
New Line.L53 phases=3 Bus1=52.1.2.3 Bus2=53.1.2.3 LineCode=1 Length=0.200 units=kft
New Line.L54 phases=3 Bus1=53.1.2.3 Bus2=54.1.2.3 LineCode=1 Length=0.125 units=kft
New Line.L55 phases=3 Bus1=54.1.2.3 Bus2=55.1.2.3 LineCode=1 Length=0.275 units=kft
New Line.L56 phases=3 Bus1=54.1.2.3 Bus2=57.1.2.3 LineCode=1 Length=0.350 units=kft
New Line.L57 phases=1 Bus1=55.1 Bus2=56.1 LineCode=9 Length=0.275 units=kft
New Line.L58 phases=3 Bus1=57.1.2.3 Bus2=58.1.2.3 LineCode=1 Length=0.250 units=kft
New Line.L59 phases=2 Bus1=57.2.3 Bus2=60.2.3 LineCode=8 Length=0.750 units=kft
New Line.L60 phases=2 Bus1=58.2.3 Bus2=59.2.3 LineCode=8 Length=0.250 units=kft
New Line.L61 phases=2 Bus1=60.2.3 Bus2=61.2.3 LineCode=8 Length=0.550 units=kft
New Line.L62 phases=2 Bus1=60.2.3 Bus2=62.2.3 LineCode=8 Length=0.250 units=kft
New Line.L63 phases=1 Bus1=62.3 Bus2=63.3 LineCode=11 Length=0.175 units=kft
New Line.L64 phases=1 Bus1=62.3 Bus2=64.3 LineCode=11 Length=0.350 units=kft
New Line.L65 phases=1 Bus1=64.2 Bus2=65.2 LineCode=10 Length=0.425 units=kft
New Line.L66 phases=1 Bus1=65.2 Bus2=66.2 LineCode=10 Length=0.325 units=kft
New Line.L67 phases=3 Bus1=67.1.2.3 Bus2=68.1.2.3 LineCode=1 Length=0.200 units=kft
New Line.L68 phases=3 Bus1=67.1.2.3 Bus2=72.1.2.3 LineCode=1 Length=0.275 units=kft
New Line.L69 phases=1 Bus1=67.1 Bus2=97.1 LineCode=9 Length=0.250 units=kft
New Line.L70 phases=1 Bus1=68.1 Bus2=69.1 LineCode=9 Length=0.275 units=kft
New Line.L71 phases=1 Bus1=69.1 Bus2=70.1 LineCode=9 Length=0.325 units=kft
New Line.L72 phases=1 Bus1=70.1 Bus2=71.1 LineCode=9 Length=0.275 units=kft
New Line.L73 phases=3 Bus1=72.1.2.3 Bus2=73.1.2.3 LineCode=1 Length=0.275 units=kft
New Line.L74 phases=3 Bus1=72.1.2.3 Bus2=76.1.2.3 LineCode=1 Length=0.200 units=kft
New Line.L75 phases=1 Bus1=73.3 Bus2=74.3 LineCode=11 Length=0.350 units=kft
New Line.L76 phases=1 Bus1=74.3 Bus2=75.3 LineCode=11 Length=0.400 units=kft
New Line.L77 phases=3 Bus1=76.1.2.3 Bus2=77.1.2.3 LineCode=1 Length=0.400 units=kft
New Line.L78 phases=3 Bus1=76.1.2.3 Bus2=86.1.2.3 LineCode=1 Length=0.700 units=kft
New Line.L79 phases=2 Bus1=77.2.3 Bus2=78.2.3 LineCode=8 Length=0.100 units=kft
New Line.L80 phases=2 Bus1=78.2.3 Bus2=79.2.3 LineCode=8 Length=0.225 units=kft
New Line.L81 phases=2 Bus1=78.2.3 Bus2=80.2.3 LineCode=8 Length=0.475 units=kft
New Line.L82 phases=2 Bus1=80.2.3 Bus2=81.2.3 LineCode=8 Length=0.475 units=kft
New Line.L83 phases=1 Bus1=81.3 Bus2=82.3 LineCode=11 Length=0.250 units=kft
New Line.L84 phases=1 Bus1=81.3 Bus2=84.3 LineCode=11 Length=0.675 units=kft
New Line.L85 phases=1 Bus1=82.3 Bus2=83.3 LineCode=11 Length=0.250 units=kft
New Line.L86 phases=1 Bus1=84.3 Bus2=85.3 LineCode=11 Length=0.475 units=kft
New Line.L87 phases=3 Bus1=86.1.2.3 Bus2=87.1.2.3 LineCode=1 Length=0.450 units=kft
New Line.L88 phases=3 Bus1=87.1.2.3 Bus2=88.1.2.3 LineCode=1 Length=0.175 units=kft
New Line.L89 phases=3 Bus1=87.1.2.3 Bus2=89.1.2.3 LineCode=1 Length=0.275 units=kft
New Line.L90 phases=1 Bus1=89.1 Bus2=90.1 LineCode=9 Length=0.225 units=kft
New Line.L91 phases=2 Bus1=89.1.2 Bus2=91.1.2 LineCode=6 Length=0.225 units=kft
New Line.L92 phases=2 Bus1=91.1.2 Bus2=92.1.2 LineCode=6 Length=0.300 units=kft
New Line.L93 phases=2 Bus1=91.1.2 Bus2=93.1.2 LineCode=6 Length=0.225 units=kft
New Line.L94 phases=1 Bus1=93.1 Bus2=94.1 LineCode=9 Length=0.275 units=kft
New Line.L95 phases=1 Bus1=93.2 Bus2=95.2 LineCode=10 Length=0.300 units=kft
New Line.L96 phases=1 Bus1=95.2 Bus2=96.2 LineCode=10 Length=0.200 units=kft
New Line.L97 phases=1 Bus1=97.1 Bus2=98.1 LineCode=9 Length=0.275 units=kft
New Line.L98 phases=1 Bus1=98.1 Bus2=99.1 LineCode=9 Length=0.550 units=kft
New Line.L99 phases=1 Bus1=99.1 Bus2=100.1 LineCode=9 Length=0.300 units=kft
New Line.L100 phases=1 Bus1=100.1 Bus2=450.1 LineCode=9 Length=0.800 units=kft
New Line.L101 phases=3 Bus1=101.1.2.3 Bus2=102.1.2.3 LineCode=1 Length=0.225 units=kft
New Line.L102 phases=1 Bus1=102.3 Bus2=103.3 LineCode=11 Length=0.325 units=kft
New Line.L103 phases=1 Bus1=103.3 Bus2=104.3 LineCode=11 Length=0.700 units=kft
New Line.L104 phases=3 Bus1=101.1.2.3 Bus2=105.1.2.3 LineCode=1 Length=0.275 units=kft
New Line.L105 phases=2 Bus1=105.2.3 Bus2=106.2.3 LineCode=8 Length=0.225 units=kft
New Line.L106 phases=2 Bus1=106.2.3 Bus2=107.2.3 LineCode=8 Length=0.575 units=kft
New Line.L107 phases=3 Bus1=105.1.2.3 Bus2=108.1.2.3 LineCode=1 Length=0.325 units=kft
New Line.L108 phases=1 Bus1=108.1 Bus2=109.1 LineCode=9 Length=0.450 units=kft
New Line.L109 phases=1 Bus1=108.2 Bus2=110.2 LineCode=10 Length=0.300 units=kft
New Line.L110 phases=1 Bus1=109.1 Bus2=111.1 LineCode=9 Length=0.575 units=kft
New Line.L111 phases=1 Bus1=110.2 Bus2=112.2 LineCode=10 Length=0.125 units=kft
New Line.L112 phases=1 Bus1=112.2 Bus2=113.2 LineCode=10 Length=0.525 units=kft
New Line.L113 phases=1 Bus1=113.2 Bus2=114.2 LineCode=10 Length=0.325 units=kft
New Line.L114 phases=3 Bus1=135.1.2.3 Bus2=35.1.2.3 LineCode=4 Length=0.375 units=kft
New Line.L115 phases=3 Bus1=149.1.2.3 Bus2=1.1.2.3 LineCode=1 Length=0.400 units=kft
New Line.L116 phases=3 Bus1=152.1.2.3 Bus2=52.1.2.3 LineCode=1 Length=0.200 units=kft
New Line.L117 phases=3 Bus1=160.1.2.3 Bus2=67.1.2.3 LineCode=1 Length=0.350 units=kft
New Line.L118 phases=3 Bus1=197.1.2.3 Bus2=101.1.2.3 LineCode=1 Length=0.250 units=kft

! Switches (Normally closed / modeled as low-impedance lines or switches)
New Line.Sw1 phases=3 Bus1=13.1.2.3 Bus2=152.1.2.3 Switch=y r1=1e-4 x1=1e-4 r0=1e-4 x0=1e-4 Length=0.001 units=kft
New Line.Sw2 phases=3 Bus1=18.1.2.3 Bus2=135.1.2.3 Switch=y r1=1e-4 x1=1e-4 r0=1e-4 x0=1e-4 Length=0.001 units=kft
New Line.Sw3 phases=3 Bus1=60.1.2.3 Bus2=160.1.2.3 Switch=y r1=1e-4 x1=1e-4 r0=1e-4 x0=1e-4 Length=0.001 units=kft
New Line.Sw4 phases=3 Bus1=97.1.2.3 Bus2=197.1.2.3 Switch=y r1=1e-4 x1=1e-4 r0=1e-4 x0=1e-4 Length=0.001 units=kft
New Line.Sw5 phases=3 Bus1=150.1.2.3 Bus2=149.1.2.3 Switch=y r1=1e-4 x1=1e-4 r0=1e-4 x0=1e-4 Length=0.001 units=kft
New Line.Sw6 phases=3 Bus1=54.1.2.3 Bus2=94.1.2.3 Switch=y r1=1e-4 x1=1e-4 r0=1e-4 x0=1e-4 Length=0.001 units=kft Enabled=false
New Line.Sw7 phases=3 Bus1=151.1.2.3 Bus2=300.1.2.3 Switch=y r1=1e-4 x1=1e-4 r0=1e-4 x0=1e-4 Length=0.001 units=kft Enabled=false
